Version 4
SHEET 1 1252 680
WIRE 480 80 240 80
WIRE 240 128 240 80
WIRE -128 192 -176 192
WIRE -32 192 -128 192
WIRE 64 208 32 208
WIRE 192 208 144 208
WIRE 480 208 480 80
WIRE -32 224 -128 224
WIRE -384 272 -384 256
WIRE -128 320 -128 224
WIRE 240 320 240 224
WIRE 240 320 -128 320
WIRE 240 336 240 320
WIRE -384 384 -384 272
WIRE -176 384 -176 192
WIRE -384 512 -384 464
WIRE -176 512 -176 464
WIRE -176 512 -384 512
WIRE 240 512 240 416
WIRE 240 512 -176 512
WIRE 352 512 240 512
WIRE 480 512 480 288
WIRE 480 512 352 512
WIRE 352 560 352 512
FLAG 352 560 0
FLAG 0 176 0
FLAG -384 272 V
FLAG 0 240 V
FLAG -128 192 Vref
SYMBOL Opamps\\UniversalOpamp2 0 208 M180
SYMATTR InstName U1
SYMBOL res 224 320 R0
SYMATTR InstName R1
SYMATTR Value .1
SYMBOL voltage 480 192 R0
WINDOW 123 0 0 Left 2
WINDOW 39 0 0 Left 2
SYMATTR InstName V1
SYMATTR Value PULSE(0 30 0 .2 .2 .3 1 1)
SYMBOL voltage -176 368 R0
WINDOW 123 0 0 Left 2
WINDOW 39 0 0 Left 2
SYMATTR InstName V2
SYMATTR Value .1
SYMBOL voltage -384 368 R0
WINDOW 123 0 0 Left 2
WINDOW 39 0 0 Left 2
SYMATTR InstName V3
SYMATTR Value 2.7
SYMBOL nmos 192 128 R0
SYMATTR InstName M1
SYMATTR Value AP9465GEM
SYMBOL res 160 192 R90
WINDOW 0 0 56 VBottom 2
WINDOW 3 32 56 VTop 2
SYMATTR InstName R5
SYMATTR Value 1000
TEXT -432 584 Left 2 !.tran 0 1 0
